/*--------------------------------*- C++ -*----------------------------------*\
  =========                 |
  \\      /  F ield         | OpenFOAM: The Open Source CFD Toolbox
   \\    /   O peration     | Website:  https://openfoam.org
    \\  /    A nd           | Version:  7
     \\/     M anipulation  |
\*---------------------------------------------------------------------------*/
FoamFile
{
    version     2.0;
    format      ascii;
    class       dictionary;
    location    "system";
    object      setFieldsDict;
}
// * * * * * * * * * * * * * * * * * * * * * * * * * * * * * * * * * * * * * //

defaultFieldValues
(
    volScalarFieldValue T    500    
    volScalarFieldValue H    0.0
    volScalarFieldValue H2   0.028522
    volScalarFieldValue O    0.0
    volScalarFieldValue OH   0.0
    volScalarFieldValue H2O  0.0
    volScalarFieldValue O2   0.226354
    volScalarFieldValue HO2  0.0
    volScalarFieldValue H2O2 0.0
    volScalarFieldValue N2   0.745124
);

regions
(
    cylinderToCell
    {
        p1 (0.025132741 0.025132741 0);
		p2 (0.025132741 0.025132741 0.050265482);
		radius 0.0025132741;
        fieldValues
        (
            volScalarFieldValue T    2485.8 
            volScalarFieldValue H    0.000139
            volScalarFieldValue H2   0.001688
            volScalarFieldValue O    0.000763
            volScalarFieldValue OH   0.008357
            volScalarFieldValue H2O  0.234122
            volScalarFieldValue O2   0.009804
            volScalarFieldValue HO2  0.000003
            volScalarFieldValue H2O2 0
            volScalarFieldValue N2   0.745124
        );
    }
);

// ************************************************************************* //
